Version 4
SHEET 1 880 968
WIRE -288 -128 -368 -128
WIRE -176 -128 -288 -128
WIRE -112 -128 -176 -128
WIRE 0 -128 -112 -128
WIRE 48 -128 0 -128
WIRE 176 -128 48 -128
WIRE 224 -128 176 -128
WIRE 368 -128 224 -128
WIRE 400 -128 368 -128
WIRE 576 -128 400 -128
WIRE -224 -64 -272 -64
WIRE -176 -64 -176 -128
WIRE -48 -64 -64 -64
WIRE 0 -64 0 -128
WIRE 176 -64 176 -128
WIRE 368 -64 368 -128
WIRE 640 -64 464 -64
WIRE -272 0 -272 -64
WIRE -240 0 -272 0
WIRE -64 0 -64 -64
WIRE -64 0 -112 0
WIRE 112 0 112 -64
WIRE 112 0 64 0
WIRE 288 0 288 -64
WIRE 288 0 240 0
WIRE 304 0 288 0
WIRE 464 0 464 -64
WIRE 464 0 432 0
WIRE -176 64 -176 -64
WIRE 0 64 0 -64
WIRE 176 64 176 -64
WIRE 368 64 368 -64
WIRE -240 128 -240 0
WIRE -112 128 -112 0
WIRE -64 128 -64 0
WIRE 64 128 64 0
WIRE 112 128 112 0
WIRE 240 128 240 0
WIRE 304 128 304 0
WIRE 432 128 432 0
WIRE -272 160 -272 0
WIRE -272 160 -368 160
WIRE -368 176 -368 160
FLAG -368 0 0
SYMBOL cktsym\\nmos3 368 128 R90
SYMATTR InstName U1
SYMBOL cktsym\\nmos3 368 0 R90
SYMATTR InstName U2
SYMBOL cktsym\\nmos3 640 -128 R0
SYMATTR InstName U3
SYMBOL cktsym\\nmos3 464 -128 R0
SYMATTR InstName U4
SYMBOL cktsym\\nmos3 288 -128 R0
SYMATTR InstName U5
SYMBOL cktsym\\nmos3 112 -128 R0
SYMATTR InstName U6
SYMBOL cktsym\\nmos3 -48 -128 R0
SYMATTR InstName U7
SYMBOL cktsym\\nmos3 -224 -128 R0
SYMATTR InstName U8
SYMBOL cktsym\\vdd 640 -192 R0
SYMATTR InstName U9
SYMBOL cktsym\\nmos3 176 0 R90
SYMATTR InstName U10
SYMBOL cktsym\\nmos3 176 128 R90
SYMATTR InstName U11
SYMBOL cktsym\\nmos3 0 0 R90
SYMATTR InstName U12
SYMBOL cktsym\\nmos3 0 128 R90
SYMATTR InstName U13
SYMBOL cktsym\\nmos3 -176 128 R90
SYMATTR InstName U14
SYMBOL cktsym\\nmos3 -176 0 R90
SYMATTR InstName U15
SYMBOL cktsym\\vsource 816 -128 R0
WINDOW 123 0 0 Left 0
WINDOW 39 0 0 Left 0
SYMATTR Value 5
SYMATTR InstName V1
SYMBOL cktsym\\vdd 816 -192 R0
SYMATTR InstName U16
SYMBOL cktsym\\gnd 816 -64 R0
SYMATTR InstName U17
SYMBOL cktsym\\vdd 288 -192 R0
SYMATTR InstName U18
SYMBOL cktsym\\vdd 464 -192 R0
SYMATTR InstName U19
SYMBOL cktsym\\vdd 112 -192 R0
SYMATTR InstName U20
SYMBOL cktsym\\vdd -48 -192 R0
SYMATTR InstName U21
SYMBOL cktsym\\vdd -224 -192 R0
SYMATTR InstName U22
SYMBOL cktsym\\vsource -368 -64 R0
WINDOW 123 0 0 Left 0
WINDOW 39 0 0 Left 0
SYMATTR Value 5
SYMATTR InstName V2
SYMBOL cktsym\\gnd -368 176 R0
SYMATTR InstName U23
TEXT 64 240 Left 2 !.lib C:\\Users\\abasore\\Documents\\LTspiceXVII\\engr2420.sub
TEXT 616 168 Left 2 !.dc V2 0 5 0.01
